********************************************
* Autodesk EAGLE - Spice Model File
* Date: 9/25/17
* Variable resistor PIN1 ---/\/\/\/\--- PIN2
*                               |
*                              PIN3
********************************************
.subckt POT_VR111 1 2 3
.param VAL=5K
.param VAR=50
R1 1 3 {val*var/100}
R2 3 2 {val-val*var/100}
.ends POT