**********************
* Autodesk EAGLE - SPICE Model File
* Author:
* Date: 
**********************
.SUBCKT PowerPads POS NEG
R1 POS NEG 100MEG
.ENDS subnam