**********************
* Autodesk EAGLE - SPICE Model File
* Author:
* Date: 
**********************
.SUBCKT PwrMinus NEG
R1 NEG 0 0
.ENDS subnam