**********************
* Autodesk EAGLE - SPICE Model File
* Author:
* Date: 
**********************
.SUBCKT PwrPlus POS
R1 POS 0 100MEG
.ENDS subnam