*
.SUBCKT StereoIn L LSw RSw R Ret

VLeft L Ret AC 0.01
VRight R Ret AC 0.01
*VLeft L Ret DC 2.5
*VRight R Ret DC 2.5

R1 LSw 0 1G
R2 RSw 0 1G
R3 L 0 1G
R4 R 0 1G

.ENDS