*
.SUBCKT USBSupply 1 2 3 4 5

R1 2 5 100MEG
R2 3 5 100MEG
R4 4 5 100MEG

VSUPPLY 1 5 DC 5

.ENDS